/*--------------------------------*- C++ -*----------------------------------*\
| =========                 |                                                 |
| \\      /  F ield         | OpenFOAM: The Open Source CFD Toolbox           |
|  \\    /   O peration     | Version:  v2206                                 |
|   \\  /    A nd           | Website:  www.openfoam.com                      |
|    \\/     M anipulation  |                                                 |
\*---------------------------------------------------------------------------*/
FoamFile
{
    version     2.0;
    format      ascii;
    class       volScalarField;
    object      pAcoustic;
}
// * * * * * * * * * * * * * * * * * * * * * * * * * * * * * * * * * * * * * //

dimensions      [1 -1 -2 0 0 0 0];

internalField   uniform 0;

boundaryField
{
    down
    {
        type                pressureOutletLMCBC;
        cInf                340;
        rho                 1;
        axis                y;
    }
    right
    {
        type                pressureOutletLMCBC;
        cInf                340;
        rho                 1;
        axis                x;
    }
    up
    {
        type                pressureOutletLMCBC;
        cInf                340;
        rho                 1;
        axis                y;
    }
    left
    {
        type                pressureOutletLMCBC;
        cInf                340;
        rho                 1;
        axis                x;
    }
    frontAndBackPlanes
    {
        type            empty;
    }
    

}


// ************************************************************************* //
